Proj Title=lwd
Current Plan=p16
Default Exp/Contr=0.3,0.1
SI Units
Geom File=g01
Geom File=g02
Geom File=g03
Geom File=g04
Geom File=g05
Geom File=g06
Geom File=g07
Geom File=g08
Geom File=g09
Geom File=g10
Geom File=g11
Geom File=g12
Geom File=g13
Geom File=g14
Geom File=g15
Geom File=g16
Unsteady File=u01
Unsteady File=u02
Unsteady File=u03
Unsteady File=u04
Unsteady File=u05
Unsteady File=u06
Unsteady File=u07
Unsteady File=u08
Unsteady File=u09
Unsteady File=u10
Unsteady File=u11
Unsteady File=u12
Unsteady File=u13
Unsteady File=u14
Unsteady File=u15
Unsteady File=u16
Plan File=p01
Plan File=p02
Plan File=p03
Plan File=p04
Plan File=p05
Plan File=p06
Plan File=p07
Plan File=p08
Plan File=p09
Plan File=p10
Plan File=p11
Plan File=p12
Plan File=p13
Plan File=p14
Plan File=p15
Plan File=p16
Y Axis Title=Elevation
X Axis Title(PF)=Main Channel Distance
X Axis Title(XS)=Station
BEGIN DESCRIPTION:

END DESCRIPTION:
DSS Start Date=
DSS Start Time=
DSS End Date=
DSS End Time=
DSS File=dss
DSS Export Filename=
DSS Export Rating Curves= 0 
DSS Export Rating Curve Sorted= 0 
DSS Export Volume Flow Curves= 0 
DXF Filename=
DXF OffsetX= 0 
DXF OffsetY= 0 
DXF ScaleX= 1 
DXF ScaleY= 10 
GIS Export Profiles= 0 
