Geom Title=mesh_12_coarse_2
Program Version=6.60
Viewing Rectangle=-12 , 8 , 1.575 ,-7.50000000000001E-02 

Storage Area=flume           ,-2.51,0.75
Storage Area Surface Line= 5 
           -10.1              0.                
           -10.1             1.5                
            5.08             1.5                
            5.08              0.                
           -10.1              0.                
Storage Area Type= 1 
Storage Area Area=
Storage Area Min Elev=
Storage Area Is2D=-1
Storage Area Point Generation Data=0,0,0.05,0.05
Storage Area 2D Points= 8990 
-10.0749999996271.47499999962747-10.0249999988821.47499999962747
-9.97499999813731.47499999962747-9.92499999739231.47499999962747
-9.87499999664721.47499999962747-9.82499999590211.47499999962747
-9.77499999515711.47499999962747 -9.7249999944121.47499999962747
 -9.6749999936671.47499999962747-9.62499999292191.47499999962747
-9.57499999217681.47499999962747-9.52499999143181.47499999962747
-9.47499999068671.47499999962747-9.42499998994171.47499999962747
-9.37499998919661.47499999962747-9.32499998845161.47499999962747
-9.27499998770651.47499999962747-9.22499998696141.47499999962747
-9.17499998621641.47499999962747-9.12499998547131.47499999962747
-9.07499998472631.47499999962747-9.02499998398121.47499999962747
-8.97499998323611.47499999962747-8.92499998249111.47499999962747
 -8.8749999817461.47499999962747 -8.8249999810011.47499999962747
-8.77499998025591.47499999962747-8.72499997951091.47499999962747
-8.67499997876581.47499999962747-8.62499997802071.47499999962747
-8.57499997727571.47499999962747-8.52499997653061.47499999962747
-8.47499997578561.47499999962747-8.42499997504051.47499999962747
-8.37499997429551.47499999962747-8.32499997355041.47499999962747
-8.27499997280531.47499999962747-8.22499997206031.47499999962747
-8.17499997131521.47499999962747-8.12499997057021.47499999962747
-8.07499996982511.47499999962747  -8.024999969081.47499999962747
 -7.9749999683351.47499999962747-7.92499996758991.47499999962747
-7.87499996684491.47499999962747-7.82499996609981.47499999962747
-7.77499996535481.47499999962747-7.72499996460971.47499999962747
-7.67499996386461.47499999962747-7.62499996311961.47499999962747
-7.57499996237451.47499999962747-7.52499996162951.47499999962747
-7.47499996088441.47499999962747-7.42499996013931.47499999962747
-7.37499995939431.47499999962747-7.32499995864921.47499999962747
-7.27499995790421.47499999962747-7.22499995715911.47499999962747
-7.17499995641411.47499999962747 -7.1249999556691.47499999962747
-7.07499995492391.47499999962747-7.02499995417891.47499999962747
-6.97499995343381.47499999962747-6.92499995268881.47499999962747
-6.87499995194371.47499999962747-6.82499995119871.47499999962747
-6.77499995045361.47499999962747-6.72499994970851.47499999962747
-6.67499994896351.47499999962747-6.62499994821841.47499999962747
-6.57499994747341.47499999962747-6.52499994672831.47499999962747
-6.47499994598321.47499999962747-6.42499994523821.47499999962747
-6.37499994449311.47499999962747-6.32499994374811.47499999962747
 -6.2749999430031.47499999962747 -6.2249999422581.47499999962747
-6.17499994151291.47499999962747-6.12499994076781.47499999962747
-6.07499994002281.47499999962747-6.02499993927771.47499999962747
-5.97499993853271.47499999962747-5.92499993778761.47499999962747
-5.87499993704251.47499999962747-5.82499993629751.47499999962747
-5.77499993555241.47499999962747-5.72499993480741.47499999962747
-5.67499993406231.47499999962747-5.62499993331731.47499999962747
-5.57499993257221.47499999962747-5.52499993182711.47499999962747
-5.47499993108211.47499999962747 -5.4249999303371.47499999962747
 -5.3749999295921.47499999962747-5.32499992884691.47499999962747
-5.27499992810191.47499999962747-5.22499992735681.47499999962747
-5.17499992661171.47499999962747-5.12499992586671.47499999962747
-5.07499992512161.47499999962747-5.02499992437661.47499999962747
-4.97499992363151.47499999962747-4.92499992288641.47499999962747
-4.87499992214141.47499999962747-4.82499992139631.47499999962747
-4.77499992065131.47499999962747-4.72499991990621.47499999962747
-4.67499991916121.47499999962747-4.62499991841611.47499999962747
 -4.5749999176711.47499999962747 -4.5249999169261.47499999962747
-4.47499991618091.47499999962747-4.42499991543591.47499999962747
-4.37499991469081.47499999962747-4.32499991394571.47499999962747
-4.27499991320071.47499999962747-4.22499991245561.47499999962747
-4.17499991171061.47499999962747-4.12499991096551.47499999962747
-4.07499991022051.47499999962747-4.02499990947541.47499999962747
-3.97499990873031.47499999962747-3.92499990798531.47499999962747
-3.87499990724021.47499999962747-3.82499990649521.47499999962747
-3.77499990575011.47499999962747-3.72499990500511.47499999962747
  -3.674999904261.47499999962747-3.62499990351491.47499999962747
-3.57499990276991.47499999962747-3.52499990202481.47499999962747
-3.47499990127981.47499999962747-3.42499990053471.47499999962747
-3.37499989978961.47499999962747-3.32499989904461.47499999962747
-3.27499989829951.47499999962747-3.22499989755451.47499999962747
-3.17499989680941.47499999962747-3.12499989606441.47499999962747
-3.07499989531931.47499999962747-3.02499989457421.47499999962747
-2.97499989382921.47499999962747-2.92499989308411.47499999962747
-2.87499989233911.47499999962747 -2.8249998915941.47499999962747
-2.77499989084891.47499999962747-2.72499989010391.47499999962747
-2.67499988935881.47499999962747-2.62499988861381.47499999962747
-2.57499988786871.47499999962747-2.52499988712371.47499999962747
-2.47499988637861.47499999962747-2.42499988563351.47499999962747
-2.37499988488851.47499999962747-2.32499988414341.47499999962747
-2.27499988339841.47499999962747-2.22499988265331.47499999962747
-2.17499988190831.47499999962747-2.12499988116321.47499999962747
-2.07499988041811.47499999962747-2.02499987967311.47499999962747
 -1.9749998789281.47499999962747 -1.9249998781831.47499999962747
-1.87499987743791.47499999962747-1.82499987669281.47499999962747
-1.77499987594781.47499999962747-1.72499987520271.47499999962747
-1.67499987445771.47499999962747-1.62499987371261.47499999962747
-1.57499987296761.47499999962747-1.52499987222251.47499999962747
-1.47499987147741.47499999962747-1.42499987073241.47499999962747
-1.37499986998731.47499999962747-1.32499986924231.47499999962747
-1.27499986849721.47499999962747-1.22499986775211.47499999962747
-1.17499986700711.47499999962747 -1.1249998662621.47499999962747
 -1.0749998655171.47499999962747-1.02499986477191.47499999962747
-0.97499986402691.47499999962747-0.92499986328181.47499999962747
-0.87499986253671.47499999962747-0.82499986179171.47499999962747
-0.77499986104661.47499999962747-0.72499986030161.47499999962747
-0.67499985955651.47499999962747-0.62499985881151.47499999962747
-0.57499985806641.47499999962747-0.52499985732131.47499999962747
-0.47499985657631.47499999962747-0.42499985583121.47499999962747
-0.37499985508621.47499999962747-0.32499985434111.47499999962747
 -0.2749998535961.47499999962747 -0.2249998528511.47499999962747
-0.17499985210591.47499999962747-0.12499985136091.47499999962747
0.125000152364371.474999999627470.175000153109431.47499999962747
0.225000153854491.474999999627470.275000154599551.47499999962747
0.325000155344611.474999999627470.375000156089661.47499999962747
0.425000156834721.474999999627470.475000157579781.47499999962747
0.525000158324841.47499999962747 0.57500015906991.47499999962747
0.625000159814951.474999999627470.675000160560011.47499999962747
0.725000161305071.474999999627470.775000162050131.47499999962747
0.825000162795191.474999999627470.875000163540241.47499999962747
 0.92500016428531.474999999627470.975000165030361.47499999962747
1.025000165775421.474999999627471.075000166520481.47499999962747
1.125000167265531.474999999627471.175000168010591.47499999962747
1.225000168755651.474999999627471.275000169500711.47499999962747
1.325000170245771.474999999627471.375000170990831.47499999962747
1.425000171735881.474999999627471.475000172480941.47499999962747
  1.5250001732261.474999999627471.575000173971061.47499999962747
1.625000174716121.474999999627471.675000175461171.47499999962747
1.725000176206231.474999999627471.775000176951291.47499999962747
1.825000177696351.474999999627471.875000178441411.47499999962747
1.925000179186461.474999999627471.975000179931521.47499999962747
2.025000180676581.474999999627472.075000181421641.47499999962747
 2.12500018216671.474999999627472.175000182911751.47499999962747
2.225000183656811.474999999627472.275000184401871.47499999962747
2.325000185146931.474999999627472.375000185891991.47499999962747
2.425000186637041.47499999962747 2.47500018738211.47499999962747
2.525000188127161.474999999627472.575000188872221.47499999962747
2.625000189617281.474999999627472.675000190362331.47499999962747
2.725000191107391.474999999627472.775000191852451.47499999962747
2.825000192597511.474999999627472.875000193342571.47499999962747
2.925000194087621.474999999627472.975000194832681.47499999962747
3.025000195577741.47499999962747 3.07500019632281.47499999962747
3.125000197067861.474999999627473.175000197812921.47499999962747
3.225000198557971.474999999627473.275000199303031.47499999962747
3.325000200048091.474999999627473.375000200793151.47499999962747
3.425000201538211.474999999627473.475000202283261.47499999962747
3.525000203028321.474999999627473.575000203773381.47499999962747
3.625000204518441.47499999962747 3.67500020526351.47499999962747
3.725000206008551.474999999627473.775000206753611.47499999962747
3.825000207498671.474999999627473.875000208243731.47499999962747
3.925000208988791.474999999627473.975000209733841.47499999962747
 4.02500021047891.474999999627474.075000211223961.47499999962747
4.125000211969021.474999999627474.175000212714081.47499999962747
4.225000213459131.474999999627474.275000214204191.47499999962747
4.325000214949251.474999999627474.375000215694311.47499999962747
4.425000216439371.474999999627474.475000217184421.47499999962747
4.525000217929481.474999999627474.575000218674541.47499999962747
 4.62500021941961.474999999627474.675000220164661.47499999962747
4.725000220909721.474999999627474.775000221654771.47499999962747
4.825000222399831.474999999627474.875000223144891.47499999962747
4.925000223889951.474999999627474.975000224635011.47499999962747
5.025000225380061.47499999962747-10.0749999996271.42499999888241
-10.0249999988821.42499999888241-9.97499999813731.42499999888241
-9.92499999739231.42499999888241-9.87499999664721.42499999888241
-9.82499999590211.42499999888241-9.77499999515711.42499999888241
 -9.7249999944121.42499999888241 -9.6749999936671.42499999888241
-9.62499999292191.42499999888241-9.57499999217681.42499999888241
-9.52499999143181.42499999888241-9.47499999068671.42499999888241
-9.42499998994171.42499999888241-9.37499998919661.42499999888241
-9.32499998845161.42499999888241-9.27499998770651.42499999888241
-9.22499998696141.42499999888241-9.17499998621641.42499999888241
-9.12499998547131.42499999888241-9.07499998472631.42499999888241
-9.02499998398121.42499999888241-8.97499998323611.42499999888241
-8.92499998249111.42499999888241 -8.8749999817461.42499999888241
 -8.8249999810011.42499999888241-8.77499998025591.42499999888241
-8.72499997951091.42499999888241-8.67499997876581.42499999888241
-8.62499997802071.42499999888241-8.57499997727571.42499999888241
-8.52499997653061.42499999888241-8.47499997578561.42499999888241
-8.42499997504051.42499999888241-8.37499997429551.42499999888241
-8.32499997355041.42499999888241-8.27499997280531.42499999888241
-8.22499997206031.42499999888241-8.17499997131521.42499999888241
-8.12499997057021.42499999888241-8.07499996982511.42499999888241
  -8.024999969081.42499999888241 -7.9749999683351.42499999888241
-7.92499996758991.42499999888241-7.87499996684491.42499999888241
-7.82499996609981.42499999888241-7.77499996535481.42499999888241
-7.72499996460971.42499999888241-7.67499996386461.42499999888241
-7.62499996311961.42499999888241-7.57499996237451.42499999888241
-7.52499996162951.42499999888241-7.47499996088441.42499999888241
-7.42499996013931.42499999888241-7.37499995939431.42499999888241
-7.32499995864921.42499999888241-7.27499995790421.42499999888241
-7.22499995715911.42499999888241-7.17499995641411.42499999888241
 -7.1249999556691.42499999888241-7.07499995492391.42499999888241
-7.02499995417891.42499999888241-6.97499995343381.42499999888241
-6.92499995268881.42499999888241-6.87499995194371.42499999888241
-6.82499995119871.42499999888241-6.77499995045361.42499999888241
-6.72499994970851.42499999888241-6.67499994896351.42499999888241
-6.62499994821841.42499999888241-6.57499994747341.42499999888241
-6.52499994672831.42499999888241-6.47499994598321.42499999888241
-6.42499994523821.42499999888241-6.37499994449311.42499999888241
-6.32499994374811.42499999888241 -6.2749999430031.42499999888241
 -6.2249999422581.42499999888241-6.17499994151291.42499999888241
-6.12499994076781.42499999888241-6.07499994002281.42499999888241
-6.02499993927771.42499999888241-5.97499993853271.42499999888241
-5.92499993778761.42499999888241-5.87499993704251.42499999888241
-5.82499993629751.42499999888241-5.77499993555241.42499999888241
-5.72499993480741.42499999888241-5.67499993406231.42499999888241
-5.62499993331731.42499999888241-5.57499993257221.42499999888241
-5.52499993182711.42499999888241-5.47499993108211.42499999888241
 -5.4249999303371.42499999888241 -5.3749999295921.42499999888241
-5.32499992884691.42499999888241-5.27499992810191.42499999888241
-5.22499992735681.42499999888241-5.17499992661171.42499999888241
-5.12499992586671.42499999888241-5.07499992512161.42499999888241
-5.02499992437661.42499999888241-4.97499992363151.42499999888241
-4.92499992288641.42499999888241-4.87499992214141.42499999888241
-4.82499992139631.42499999888241-4.77499992065131.42499999888241
-4.72499991990621.42499999888241-4.67499991916121.42499999888241
-4.62499991841611.42499999888241 -4.5749999176711.42499999888241
 -4.5249999169261.42499999888241-4.47499991618091.42499999888241
-4.42499991543591.42499999888241-4.37499991469081.42499999888241
-4.32499991394571.42499999888241-4.27499991320071.42499999888241
-4.22499991245561.42499999888241-4.17499991171061.42499999888241
-4.12499991096551.42499999888241-4.07499991022051.42499999888241
-4.02499990947541.42499999888241-3.97499990873031.42499999888241
-3.92499990798531.42499999888241-3.87499990724021.42499999888241
-3.82499990649521.42499999888241-3.77499990575011.42499999888241
-3.72499990500511.42499999888241  -3.674999904261.42499999888241
-3.62499990351491.42499999888241-3.57499990276991.42499999888241
-3.52499990202481.42499999888241-3.47499990127981.42499999888241
-3.42499990053471.42499999888241-3.37499989978961.42499999888241
-3.32499989904461.42499999888241-3.27499989829951.42499999888241
-3.22499989755451.42499999888241-3.17499989680941.42499999888241
-3.12499989606441.42499999888241-3.07499989531931.42499999888241
-3.02499989457421.42499999888241-2.97499989382921.42499999888241
-2.92499989308411.42499999888241-2.87499989233911.42499999888241
 -2.8249998915941.42499999888241-2.77499989084891.42499999888241
-2.72499989010391.42499999888241-2.67499988935881.42499999888241
-2.62499988861381.42499999888241-2.57499988786871.42499999888241
-2.52499988712371.42499999888241-2.47499988637861.42499999888241
-2.42499988563351.42499999888241-2.37499988488851.42499999888241
-2.32499988414341.42499999888241-2.27499988339841.42499999888241
-2.22499988265331.42499999888241-2.17499988190831.42499999888241
-2.12499988116321.42499999888241-2.07499988041811.42499999888241
-2.02499987967311.42499999888241 -1.9749998789281.42499999888241
 -1.9249998781831.42499999888241-1.87499987743791.42499999888241
-1.82499987669281.42499999888241-1.77499987594781.42499999888241
-1.72499987520271.42499999888241-1.67499987445771.42499999888241
-1.62499987371261.42499999888241-1.57499987296761.42499999888241
-1.52499987222251.42499999888241-1.47499987147741.42499999888241
-1.42499987073241.42499999888241-1.37499986998731.42499999888241
-1.32499986924231.42499999888241-1.27499986849721.42499999888241
-1.22499986775211.42499999888241-1.17499986700711.42499999888241
 -1.1249998662621.42499999888241 -1.0749998655171.42499999888241
-1.02499986477191.42499999888241-0.97499986402691.42499999888241
-0.92499986328181.42499999888241-0.87499986253671.42499999888241
-0.82499986179171.42499999888241-0.77499986104661.42499999888241
-0.72499986030161.42499999888241-0.67499985955651.42499999888241
-0.62499985881151.42499999888241-0.57499985806641.42499999888241
-0.52499985732131.42499999888241-0.47499985657631.42499999888241
-0.42499985583121.42499999888241-0.37499985508621.42499999888241
-0.32499985434111.42499999888241 -0.2749998535961.42499999888241
 -0.2249998528511.42499999888241-0.17499985210591.42499999888241
-0.12499985136091.424999998882410.125000152364371.42499999888241
0.175000153109431.424999998882410.225000153854491.42499999888241
0.275000154599551.424999998882410.325000155344611.42499999888241
0.375000156089661.424999998882410.425000156834721.42499999888241
0.475000157579781.424999998882410.525000158324841.42499999888241
 0.57500015906991.424999998882410.625000159814951.42499999888241
0.675000160560011.424999998882410.725000161305071.42499999888241
0.775000162050131.424999998882410.825000162795191.42499999888241
0.875000163540241.42499999888241 0.92500016428531.42499999888241
0.975000165030361.424999998882411.025000165775421.42499999888241
1.075000166520481.424999998882411.125000167265531.42499999888241
1.175000168010591.424999998882411.225000168755651.42499999888241
1.275000169500711.424999998882411.325000170245771.42499999888241
1.375000170990831.424999998882411.425000171735881.42499999888241
1.475000172480941.42499999888241  1.5250001732261.42499999888241
1.575000173971061.424999998882411.625000174716121.42499999888241
1.675000175461171.424999998882411.725000176206231.42499999888241
1.775000176951291.424999998882411.825000177696351.42499999888241
1.875000178441411.424999998882411.925000179186461.42499999888241
1.975000179931521.424999998882412.025000180676581.42499999888241
2.075000181421641.42499999888241 2.12500018216671.42499999888241
2.175000182911751.424999998882412.225000183656811.42499999888241
2.275000184401871.424999998882412.325000185146931.42499999888241
2.375000185891991.424999998882412.425000186637041.42499999888241
 2.47500018738211.424999998882412.525000188127161.42499999888241
2.575000188872221.424999998882412.625000189617281.42499999888241
2.675000190362331.424999998882412.725000191107391.42499999888241
2.775000191852451.424999998882412.825000192597511.42499999888241
2.875000193342571.424999998882412.925000194087621.42499999888241
2.975000194832681.424999998882413.025000195577741.42499999888241
 3.07500019632281.424999998882413.125000197067861.42499999888241
3.175000197812921.424999998882413.225000198557971.42499999888241
3.275000199303031.424999998882413.325000200048091.42499999888241
3.375000200793151.424999998882413.425000201538211.42499999888241
3.475000202283261.424999998882413.525000203028321.42499999888241
3.575000203773381.424999998882413.625000204518441.42499999888241
 3.67500020526351.424999998882413.725000206008551.42499999888241
3.775000206753611.424999998882413.825000207498671.42499999888241
3.875000208243731.424999998882413.925000208988791.42499999888241
3.975000209733841.42499999888241 4.02500021047891.42499999888241
4.075000211223961.424999998882414.125000211969021.42499999888241
4.175000212714081.424999998882414.225000213459131.42499999888241
4.275000214204191.424999998882414.325000214949251.42499999888241
4.375000215694311.424999998882414.425000216439371.42499999888241
4.475000217184421.424999998882414.525000217929481.42499999888241
4.575000218674541.42499999888241 4.62500021941961.42499999888241
4.675000220164661.424999998882414.725000220909721.42499999888241
4.775000221654771.424999998882414.825000222399831.42499999888241
4.875000223144891.424999998882414.925000223889951.42499999888241
4.975000224635011.424999998882415.025000225380061.42499999888241
-10.0749999996271.37499999813735-10.0249999988821.37499999813735
-9.97499999813731.37499999813735-9.92499999739231.37499999813735
-9.87499999664721.37499999813735-9.82499999590211.37499999813735
-9.77499999515711.37499999813735 -9.7249999944121.37499999813735
 -9.6749999936671.37499999813735-9.62499999292191.37499999813735
-9.57499999217681.37499999813735-9.52499999143181.37499999813735
-9.47499999068671.37499999813735-9.42499998994171.37499999813735
-9.37499998919661.37499999813735-9.32499998845161.37499999813735
-9.27499998770651.37499999813735-9.22499998696141.37499999813735
-9.17499998621641.37499999813735-9.12499998547131.37499999813735
-9.07499998472631.37499999813735-9.02499998398121.37499999813735
-8.97499998323611.37499999813735-8.92499998249111.37499999813735
 -8.8749999817461.37499999813735 -8.8249999810011.37499999813735
-8.77499998025591.37499999813735-8.72499997951091.37499999813735
-8.67499997876581.37499999813735-8.62499997802071.37499999813735
-8.57499997727571.37499999813735-8.52499997653061.37499999813735
-8.47499997578561.37499999813735-8.42499997504051.37499999813735
-8.37499997429551.37499999813735-8.32499997355041.37499999813735
-8.27499997280531.37499999813735-8.22499997206031.37499999813735
-8.17499997131521.37499999813735-8.12499997057021.37499999813735
-8.07499996982511.37499999813735  -8.024999969081.37499999813735
 -7.9749999683351.37499999813735-7.92499996758991.37499999813735
-7.87499996684491.37499999813735-7.82499996609981.37499999813735
-7.77499996535481.37499999813735-7.72499996460971.37499999813735
-7.67499996386461.37499999813735-7.62499996311961.37499999813735
-7.57499996237451.37499999813735-7.52499996162951.37499999813735
-7.47499996088441.37499999813735-7.42499996013931.37499999813735
-7.37499995939431.37499999813735-7.32499995864921.37499999813735
-7.27499995790421.37499999813735-7.22499995715911.37499999813735
-7.17499995641411.37499999813735 -7.1249999556691.37499999813735
-7.07499995492391.37499999813735-7.02499995417891.37499999813735
-6.97499995343381.37499999813735-6.92499995268881.37499999813735
-6.87499995194371.37499999813735-6.82499995119871.37499999813735
-6.77499995045361.37499999813735-6.72499994970851.37499999813735
-6.67499994896351.37499999813735-6.62499994821841.37499999813735
-6.57499994747341.37499999813735-6.52499994672831.37499999813735
-6.47499994598321.37499999813735-6.42499994523821.37499999813735
-6.37499994449311.37499999813735-6.32499994374811.37499999813735
 -6.2749999430031.37499999813735 -6.2249999422581.37499999813735
-6.17499994151291.37499999813735-6.12499994076781.37499999813735
-6.07499994002281.37499999813735-6.02499993927771.37499999813735
-5.97499993853271.37499999813735-5.92499993778761.37499999813735
-5.87499993704251.37499999813735-5.82499993629751.37499999813735
-5.77499993555241.37499999813735-5.72499993480741.37499999813735
-5.67499993406231.37499999813735-5.62499993331731.37499999813735
-5.57499993257221.37499999813735-5.52499993182711.37499999813735
-5.47499993108211.37499999813735 -5.4249999303371.37499999813735
 -5.3749999295921.37499999813735-5.32499992884691.37499999813735
-5.27499992810191.37499999813735-5.22499992735681.37499999813735
-5.17499992661171.37499999813735-5.12499992586671.37499999813735
-5.07499992512161.37499999813735-5.02499992437661.37499999813735
-4.97499992363151.37499999813735-4.92499992288641.37499999813735
-4.87499992214141.37499999813735-4.82499992139631.37499999813735
-4.77499992065131.37499999813735-4.72499991990621.37499999813735
-4.67499991916121.37499999813735-4.62499991841611.37499999813735
 -4.5749999176711.37499999813735 -4.5249999169261.37499999813735
-4.47499991618091.37499999813735-4.42499991543591.37499999813735
-4.37499991469081.37499999813735-4.32499991394571.37499999813735
-4.27499991320071.37499999813735-4.22499991245561.37499999813735
-4.17499991171061.37499999813735-4.12499991096551.37499999813735
-4.07499991022051.37499999813735-4.02499990947541.37499999813735
-3.97499990873031.37499999813735-3.92499990798531.37499999813735
-3.87499990724021.37499999813735-3.82499990649521.37499999813735
-3.77499990575011.37499999813735-3.72499990500511.37499999813735
  -3.674999904261.37499999813735-3.62499990351491.37499999813735
-3.57499990276991.37499999813735-3.52499990202481.37499999813735
-3.47499990127981.37499999813735-3.42499990053471.37499999813735
-3.37499989978961.37499999813735-3.32499989904461.37499999813735
-3.27499989829951.37499999813735-3.22499989755451.37499999813735
-3.17499989680941.37499999813735-3.12499989606441.37499999813735
-3.07499989531931.37499999813735-3.02499989457421.37499999813735
-2.97499989382921.37499999813735-2.92499989308411.37499999813735
-2.87499989233911.37499999813735 -2.8249998915941.37499999813735
-2.77499989084891.37499999813735-2.72499989010391.37499999813735
-2.67499988935881.37499999813735-2.62499988861381.37499999813735
-2.57499988786871.37499999813735-2.52499988712371.37499999813735
-2.47499988637861.37499999813735-2.42499988563351.37499999813735
-2.37499988488851.37499999813735-2.32499988414341.37499999813735
-2.27499988339841.37499999813735-2.22499988265331.37499999813735
-2.17499988190831.37499999813735-2.12499988116321.37499999813735
-2.07499988041811.37499999813735-2.02499987967311.37499999813735
 -1.9749998789281.37499999813735 -1.9249998781831.37499999813735
-1.87499987743791.37499999813735-1.82499987669281.37499999813735
-1.77499987594781.37499999813735-1.72499987520271.37499999813735
-1.67499987445771.37499999813735-1.62499987371261.37499999813735
-1.57499987296761.37499999813735-1.52499987222251.37499999813735
-1.47499987147741.37499999813735-1.42499987073241.37499999813735
-1.37499986998731.37499999813735-1.32499986924231.37499999813735
-1.27499986849721.37499999813735-1.22499986775211.37499999813735
-1.17499986700711.37499999813735 -1.1249998662621.37499999813735
 -1.0749998655171.37499999813735-1.02499986477191.37499999813735
-0.97499986402691.37499999813735-0.92499986328181.37499999813735
-0.87499986253671.37499999813735-0.82499986179171.37499999813735
-0.77499986104661.37499999813735-0.72499986030161.37499999813735
-0.67499985955651.37499999813735-0.62499985881151.37499999813735
-0.57499985806641.37499999813735-0.52499985732131.37499999813735
-0.47499985657631.37499999813735-0.42499985583121.37499999813735
-0.37499985508621.37499999813735-0.32499985434111.37499999813735
 -0.2749998535961.37499999813735 -0.2249998528511.37499999813735
-0.17499985210591.37499999813735-0.12499985136091.37499999813735
0.125000152364371.374999998137350.175000153109431.37499999813735
0.225000153854491.374999998137350.275000154599551.37499999813735
0.325000155344611.374999998137350.375000156089661.37499999813735
0.425000156834721.374999998137350.475000157579781.37499999813735
0.525000158324841.37499999813735 0.57500015906991.37499999813735
0.625000159814951.374999998137350.675000160560011.37499999813735
0.725000161305071.374999998137350.775000162050131.37499999813735
0.825000162795191.374999998137350.875000163540241.37499999813735
 0.92500016428531.374999998137350.975000165030361.37499999813735
1.025000165775421.374999998137351.075000166520481.37499999813735
1.125000167265531.374999998137351.175000168010591.37499999813735
1.225000168755651.374999998137351.275000169500711.37499999813735
1.325000170245771.374999998137351.375000170990831.37499999813735
1.425000171735881.374999998137351.475000172480941.37499999813735
  1.5250001732261.374999998137351.575000173971061.37499999813735
1.625000174716121.374999998137351.675000175461171.37499999813735
1.725000176206231.374999998137351.775000176951291.37499999813735
1.825000177696351.374999998137351.875000178441411.37499999813735
1.925000179186461.374999998137351.975000179931521.37499999813735
2.025000180676581.374999998137352.075000181421641.37499999813735
 2.12500018216671.374999998137352.175000182911751.37499999813735
2.225000183656811.374999998137352.275000184401871.37499999813735
2.325000185146931.374999998137352.375000185891991.37499999813735
2.425000186637041.37499999813735 2.47500018738211.37499999813735
2.525000188127161.374999998137352.575000188872221.37499999813735
2.625000189617281.374999998137352.675000190362331.37499999813735
2.725000191107391.374999998137352.775000191852451.37499999813735
2.825000192597511.374999998137352.875000193342571.37499999813735
2.925000194087621.374999998137352.975000194832681.37499999813735
3.025000195577741.37499999813735 3.07500019632281.37499999813735
3.125000197067861.374999998137353.175000197812921.37499999813735
3.225000198557971.374999998137353.275000199303031.37499999813735
3.325000200048091.374999998137353.375000200793151.37499999813735
3.425000201538211.374999998137353.475000202283261.37499999813735
3.525000203028321.374999998137353.575000203773381.37499999813735
3.625000204518441.37499999813735 3.67500020526351.37499999813735
3.725000206008551.374999998137353.775000206753611.37499999813735
3.825000207498671.374999998137353.875000208243731.37499999813735
3.925000208988791.374999998137353.975000209733841.37499999813735
 4.02500021047891.374999998137354.075000211223961.37499999813735
4.125000211969021.374999998137354.175000212714081.37499999813735
4.225000213459131.374999998137354.275000214204191.37499999813735
4.325000214949251.374999998137354.375000215694311.37499999813735
4.425000216439371.374999998137354.475000217184421.37499999813735
4.525000217929481.374999998137354.575000218674541.37499999813735
 4.62500021941961.374999998137354.675000220164661.37499999813735
4.725000220909721.374999998137354.775000221654771.37499999813735
4.825000222399831.374999998137354.875000223144891.37499999813735
4.925000223889951.374999998137354.975000224635011.37499999813735
5.025000225380061.37499999813735-10.074999999627 1.3249999973923
-10.024999998882 1.3249999973923-9.9749999981373 1.3249999973923
-9.9249999973923 1.3249999973923-9.8749999966472 1.3249999973923
-9.8249999959021 1.3249999973923-9.7749999951571 1.3249999973923