Geom Title=mesh_8_coarse_3
Program Version=6.60
Viewing Rectangle=-12 , 8 , 1.575 ,-7.50000000000001E-02 

Storage Area=flume           ,-2.51,0.75
Storage Area Surface Line= 5 
           -10.1              0.                
           -10.1             1.5                
            5.08             1.5                
            5.08              0.                
           -10.1              0.                
Storage Area Type= 1 
Storage Area Area=
Storage Area Min Elev=
Storage Area Is2D=-1
Storage Area Point Generation Data=0,0,0.2,0.2
Storage Area 2D Points= 532 
-9.99999999850981.39999999850988-9.79999999552961.39999999850988
-9.59999999254941.39999999850988-9.39999998956911.39999999850988
-9.19999998658891.39999999850988-8.99999998360871.39999999850988
-8.79999998062841.39999999850988-8.59999997764821.39999999850988
-8.39999997466801.39999999850988-8.19999997168771.39999999850988
-7.99999996870751.39999999850988-7.79999996572731.39999999850988
-7.59999996274711.39999999850988-7.39999995976681.39999999850988
-7.19999995678661.39999999850988-6.99999995380641.39999999850988
-6.79999995082611.39999999850988-6.59999994784591.39999999850988
-6.39999994486571.39999999850988-6.19999994188541.39999999850988
-5.99999993890521.39999999850988-5.79999993592501.39999999850988
-5.59999993294471.39999999850988-5.39999992996451.39999999850988
-5.19999992698431.39999999850988-4.99999992400401.39999999850988
-4.79999992102381.39999999850988-4.59999991804361.39999999850988
-4.39999991506331.39999999850988-4.19999991208311.39999999850988
-3.99999990910291.39999999850988-3.79999990612261.39999999850988
-3.59999990314241.39999999850988-3.39999990016221.39999999850988
-3.19999989718191.39999999850988-2.99999989420171.39999999850988
-2.79999989122151.39999999850988-2.59999988824121.39999999850988
-2.39999988526101.39999999850988-2.19999988228081.39999999850988
-1.99999987930051.39999999850988-1.79999987632031.39999999850988
-1.59999987334011.39999999850988-1.39999987035991.39999999850988
-1.19999986737961.39999999850988-0.99999986439941.39999999850988
-0.79999986141921.39999999850988-0.59999985843891.39999999850988
-0.39999985545871.39999999850988-0.19999985247851.39999999850988
0.000000150501731.399999998509880.200000153481961.39999999850988
0.400000156462191.399999998509880.600000159442431.39999999850988
0.800000162422661.399999998509881.000000165402891.39999999850988
1.200000168383121.399999998509881.400000171363351.39999999850988
1.600000174343591.399999998509881.800000177323821.39999999850988
2.000000180304051.399999998509882.200000183284281.39999999850988
2.400000186264521.399999998509882.600000189244751.39999999850988
2.800000192224981.399999998509883.000000195205211.39999999850988
3.200000198185441.399999998509883.400000201165681.39999999850988
3.600000204145911.399999998509883.800000207126141.39999999850988
4.000000210106371.399999998509884.200000213086611.39999999850988
4.400000216066841.399999998509884.600000219047071.39999999850988
 4.80000022202731.399999998509885.000000225007531.39999999850988
-9.99999999850981.19999999552965-9.79999999552961.19999999552965
-9.59999999254941.19999999552965-9.39999998956911.19999999552965
-9.19999998658891.19999999552965-8.99999998360871.19999999552965
-8.79999998062841.19999999552965-8.59999997764821.19999999552965
-8.39999997466801.19999999552965-8.19999997168771.19999999552965
-7.99999996870751.19999999552965-7.79999996572731.19999999552965
-7.59999996274711.19999999552965-7.39999995976681.19999999552965
-7.19999995678661.19999999552965-6.99999995380641.19999999552965
-6.79999995082611.19999999552965-6.59999994784591.19999999552965
-6.39999994486571.19999999552965-6.19999994188541.19999999552965
-5.99999993890521.19999999552965-5.79999993592501.19999999552965
-5.59999993294471.19999999552965-5.39999992996451.19999999552965
-5.19999992698431.19999999552965-4.99999992400401.19999999552965
-4.79999992102381.19999999552965-4.59999991804361.19999999552965
-4.39999991506331.19999999552965-4.19999991208311.19999999552965
-3.99999990910291.19999999552965-3.79999990612261.19999999552965
-3.59999990314241.19999999552965-3.39999990016221.19999999552965
-3.19999989718191.19999999552965-2.99999989420171.19999999552965
-2.79999989122151.19999999552965-2.59999988824121.19999999552965
-2.39999988526101.19999999552965-2.19999988228081.19999999552965
-1.99999987930051.19999999552965-1.79999987632031.19999999552965
-1.59999987334011.19999999552965-1.39999987035991.19999999552965
-1.19999986737961.19999999552965-0.99999986439941.19999999552965
-0.79999986141921.19999999552965-0.59999985843891.19999999552965
-0.39999985545871.19999999552965-0.19999985247851.19999999552965
0.000000150501731.199999995529650.200000153481961.19999999552965
0.400000156462191.199999995529650.600000159442431.19999999552965
0.800000162422661.199999995529651.000000165402891.19999999552965
1.200000168383121.199999995529651.400000171363351.19999999552965
1.600000174343591.199999995529651.800000177323821.19999999552965
2.000000180304051.199999995529652.200000183284281.19999999552965
2.400000186264521.199999995529652.600000189244751.19999999552965
2.800000192224981.199999995529653.000000195205211.19999999552965
3.200000198185441.199999995529653.400000201165681.19999999552965
3.600000204145911.199999995529653.800000207126141.19999999552965
4.000000210106371.199999995529654.200000213086611.19999999552965
4.400000216066841.199999995529654.600000219047071.19999999552965
 4.80000022202731.199999995529655.000000225007531.19999999552965
-9.99999999850980.99999999254942-9.79999999552960.99999999254942
-9.59999999254940.99999999254942-9.39999998956910.99999999254942
-9.19999998658890.99999999254942-8.99999998360870.99999999254942
-8.79999998062840.99999999254942-8.59999997764820.99999999254942
-8.39999997466800.99999999254942-8.19999997168770.99999999254942
-7.99999996870750.99999999254942-7.79999996572730.99999999254942
-7.59999996274710.99999999254942-7.39999995976680.99999999254942
-7.19999995678660.99999999254942-6.99999995380640.99999999254942
-6.79999995082610.99999999254942-6.59999994784590.99999999254942
-6.39999994486570.99999999254942-6.19999994188540.99999999254942
-5.99999993890520.99999999254942-5.79999993592500.99999999254942
-5.59999993294470.99999999254942-5.39999992996450.99999999254942
-5.19999992698430.99999999254942-4.99999992400400.99999999254942
-4.79999992102380.99999999254942-4.59999991804360.99999999254942
-4.39999991506330.99999999254942-4.19999991208310.99999999254942
-3.99999990910290.99999999254942-3.79999990612260.99999999254942
-3.59999990314240.99999999254942-3.39999990016220.99999999254942
-3.19999989718190.99999999254942-2.99999989420170.99999999254942
-2.79999989122150.99999999254942-2.59999988824120.99999999254942
-2.39999988526100.99999999254942-2.19999988228080.99999999254942
-1.99999987930050.99999999254942-1.79999987632030.99999999254942
-1.59999987334010.99999999254942-1.39999987035990.99999999254942
-1.19999986737960.99999999254942-0.99999986439940.99999999254942
-0.79999986141920.99999999254942-0.59999985843890.99999999254942
-0.39999985545870.99999999254942-0.19999985247850.99999999254942
0.000000150501730.999999992549420.200000153481960.99999999254942
0.400000156462190.999999992549420.600000159442430.99999999254942
0.800000162422660.999999992549421.000000165402890.99999999254942
1.200000168383120.999999992549421.400000171363350.99999999254942
1.600000174343590.999999992549421.800000177323820.99999999254942
2.000000180304050.999999992549422.200000183284280.99999999254942
2.400000186264520.999999992549422.600000189244750.99999999254942
2.800000192224980.999999992549423.000000195205210.99999999254942
3.200000198185440.999999992549423.400000201165680.99999999254942
3.600000204145910.999999992549423.800000207126140.99999999254942
4.000000210106370.999999992549424.200000213086610.99999999254942
4.400000216066840.999999992549424.600000219047070.99999999254942
 4.80000022202730.999999992549425.000000225007530.99999999254942
-9.99999999850980.79999998956919-9.79999999552960.79999998956919
-9.59999999254940.79999998956919-9.39999998956910.79999998956919
-9.19999998658890.79999998956919-8.99999998360870.79999998956919
-8.79999998062840.79999998956919-8.59999997764820.79999998956919
-8.39999997466800.79999998956919-8.19999997168770.79999998956919
-7.99999996870750.79999998956919-7.79999996572730.79999998956919
-7.59999996274710.79999998956919-7.39999995976680.79999998956919
-7.19999995678660.79999998956919-6.99999995380640.79999998956919
-6.79999995082610.79999998956919-6.59999994784590.79999998956919
-6.39999994486570.79999998956919-6.19999994188540.79999998956919
-5.99999993890520.79999998956919-5.79999993592500.79999998956919
-5.59999993294470.79999998956919-5.39999992996450.79999998956919
-5.19999992698430.79999998956919-4.99999992400400.79999998956919
-4.79999992102380.79999998956919-4.59999991804360.79999998956919
-4.39999991506330.79999998956919-4.19999991208310.79999998956919
-3.99999990910290.79999998956919-3.79999990612260.79999998956919
-3.59999990314240.79999998956919-3.39999990016220.79999998956919
-3.19999989718190.79999998956919-2.99999989420170.79999998956919
-2.79999989122150.79999998956919-2.59999988824120.79999998956919
-2.39999988526100.79999998956919-2.19999988228080.79999998956919
-1.99999987930050.79999998956919-1.79999987632030.79999998956919
-1.59999987334010.79999998956919-1.39999987035990.79999998956919
-1.19999986737960.79999998956919-0.99999986439940.79999998956919
-0.79999986141920.79999998956919-0.59999985843890.79999998956919
-0.39999985545870.79999998956919-0.19999985247850.79999998956919
0.000000150501730.799999989569190.200000153481960.79999998956919
0.400000156462190.799999989569190.600000159442430.79999998956919
0.800000162422660.799999989569191.000000165402890.79999998956919
1.200000168383120.799999989569191.400000171363350.79999998956919
1.600000174343590.799999989569191.800000177323820.79999998956919
2.000000180304050.799999989569192.200000183284280.79999998956919
2.400000186264520.799999989569192.600000189244750.79999998956919
2.800000192224980.799999989569193.000000195205210.79999998956919
3.200000198185440.799999989569193.400000201165680.79999998956919
3.600000204145910.799999989569193.800000207126140.79999998956919
4.000000210106370.799999989569194.200000213086610.79999998956919
4.400000216066840.799999989569194.600000219047070.79999998956919
 4.80000022202730.799999989569195.000000225007530.79999998956919
-9.99999999850980.59999998658896-9.79999999552960.59999998658896
-9.59999999254940.59999998658896-9.39999998956910.59999998658896
-9.19999998658890.59999998658896-8.99999998360870.59999998658896
-8.79999998062840.59999998658896-8.59999997764820.59999998658896
-8.39999997466800.59999998658896-8.19999997168770.59999998658896
-7.99999996870750.59999998658896-7.79999996572730.59999998658896
-7.59999996274710.59999998658896-7.39999995976680.59999998658896
-7.19999995678660.59999998658896-6.99999995380640.59999998658896
-6.79999995082610.59999998658896-6.59999994784590.59999998658896
-6.39999994486570.59999998658896-6.19999994188540.59999998658896
-5.99999993890520.59999998658896-5.79999993592500.59999998658896
-5.59999993294470.59999998658896-5.39999992996450.59999998658896
-5.19999992698430.59999998658896-4.99999992400400.59999998658896
-4.79999992102380.59999998658896-4.59999991804360.59999998658896
-4.39999991506330.59999998658896-4.19999991208310.59999998658896
-3.99999990910290.59999998658896-3.79999990612260.59999998658896
-3.59999990314240.59999998658896-3.39999990016220.59999998658896
-3.19999989718190.59999998658896-2.99999989420170.59999998658896
-2.79999989122150.59999998658896-2.59999988824120.59999998658896
-2.39999988526100.59999998658896-2.19999988228080.59999998658896
-1.99999987930050.59999998658896-1.79999987632030.59999998658896
-1.59999987334010.59999998658896-1.39999987035990.59999998658896
-1.19999986737960.59999998658896-0.99999986439940.59999998658896
-0.79999986141920.59999998658896-0.59999985843890.59999998658896
-0.39999985545870.59999998658896-0.19999985247850.59999998658896
0.000000150501730.599999986588960.200000153481960.59999998658896
0.400000156462190.599999986588960.600000159442430.59999998658896
0.800000162422660.599999986588961.000000165402890.59999998658896
1.200000168383120.599999986588961.400000171363350.59999998658896
1.600000174343590.599999986588961.800000177323820.59999998658896
2.000000180304050.599999986588962.200000183284280.59999998658896
2.400000186264520.599999986588962.600000189244750.59999998658896
2.800000192224980.599999986588963.000000195205210.59999998658896
3.200000198185440.599999986588963.400000201165680.59999998658896
3.600000204145910.599999986588963.800000207126140.59999998658896
4.000000210106370.599999986588964.200000213086610.59999998658896
4.400000216066840.599999986588964.600000219047070.59999998658896
 4.80000022202730.599999986588965.000000225007530.59999998658896
-9.99999999850980.39999998360872-9.79999999552960.39999998360872
-9.59999999254940.39999998360872-9.39999998956910.39999998360872
-9.19999998658890.39999998360872-8.99999998360870.39999998360872
-8.79999998062840.39999998360872-8.59999997764820.39999998360872
-8.39999997466800.39999998360872-8.19999997168770.39999998360872
-7.99999996870750.39999998360872-7.79999996572730.39999998360872
-7.59999996274710.39999998360872-7.39999995976680.39999998360872
-7.19999995678660.39999998360872-6.99999995380640.39999998360872
-6.79999995082610.39999998360872-6.59999994784590.39999998360872
-6.39999994486570.39999998360872-6.19999994188540.39999998360872
-5.99999993890520.39999998360872-5.79999993592500.39999998360872
-5.59999993294470.39999998360872-5.39999992996450.39999998360872
-5.19999992698430.39999998360872-4.99999992400400.39999998360872
-4.79999992102380.39999998360872-4.59999991804360.39999998360872
-4.39999991506330.39999998360872-4.19999991208310.39999998360872
-3.99999990910290.39999998360872-3.79999990612260.39999998360872
-3.59999990314240.39999998360872-3.39999990016220.39999998360872
-3.19999989718190.39999998360872-2.99999989420170.39999998360872
-2.79999989122150.39999998360872-2.59999988824120.39999998360872
-2.39999988526100.39999998360872-2.19999988228080.39999998360872
-1.99999987930050.39999998360872-1.79999987632030.39999998360872
-1.59999987334010.39999998360872-1.39999987035990.39999998360872
-1.19999986737960.39999998360872-0.99999986439940.39999998360872
-0.79999986141920.39999998360872-0.59999985843890.39999998360872
-0.39999985545870.39999998360872-0.19999985247850.39999998360872
0.000000150501730.399999983608720.200000153481960.39999998360872
0.400000156462190.399999983608720.600000159442430.39999998360872
0.800000162422660.399999983608721.000000165402890.39999998360872
1.200000168383120.399999983608721.400000171363350.39999998360872
1.600000174343590.399999983608721.800000177323820.39999998360872
2.000000180304050.399999983608722.200000183284280.39999998360872
2.400000186264520.399999983608722.600000189244750.39999998360872
2.800000192224980.399999983608723.000000195205210.39999998360872
3.200000198185440.399999983608723.400000201165680.39999998360872
3.600000204145910.399999983608723.800000207126140.39999998360872
4.000000210106370.399999983608724.200000213086610.39999998360872
4.400000216066840.399999983608724.600000219047070.39999998360872
 4.80000022202730.399999983608725.000000225007530.39999998360872
-9.99999999850980.19999998062849-9.79999999552960.19999998062849
-9.59999999254940.19999998062849-9.39999998956910.19999998062849
-9.19999998658890.19999998062849-8.99999998360870.19999998062849
-8.79999998062840.19999998062849-8.59999997764820.19999998062849
-8.39999997466800.19999998062849-8.19999997168770.19999998062849
-7.99999996870750.19999998062849-7.79999996572730.19999998062849
-7.59999996274710.19999998062849-7.39999995976680.19999998062849
-7.19999995678660.19999998062849-6.99999995380640.19999998062849
-6.79999995082610.19999998062849-6.59999994784590.19999998062849
-6.39999994486570.19999998062849-6.19999994188540.19999998062849
-5.99999993890520.19999998062849-5.79999993592500.19999998062849
-5.59999993294470.19999998062849-5.39999992996450.19999998062849
-5.19999992698430.19999998062849-4.99999992400400.19999998062849
-4.79999992102380.19999998062849-4.59999991804360.19999998062849
-4.39999991506330.19999998062849-4.19999991208310.19999998062849
-3.99999990910290.19999998062849-3.79999990612260.19999998062849
-3.59999990314240.19999998062849-3.39999990016220.19999998062849
-3.19999989718190.19999998062849-2.99999989420170.19999998062849
-2.79999989122150.19999998062849-2.59999988824120.19999998062849
-2.39999988526100.19999998062849-2.19999988228080.19999998062849
-1.99999987930050.19999998062849-1.79999987632030.19999998062849
-1.59999987334010.19999998062849-1.39999987035990.19999998062849
-1.19999986737960.19999998062849-0.99999986439940.19999998062849
-0.79999986141920.19999998062849-0.59999985843890.19999998062849
-0.39999985545870.19999998062849-0.19999985247850.19999998062849
0.000000150501730.199999980628490.200000153481960.19999998062849
0.400000156462190.199999980628490.600000159442430.19999998062849
0.800000162422660.199999980628491.000000165402890.19999998062849
1.200000168383120.199999980628491.400000171363350.19999998062849
1.600000174343590.199999980628491.800000177323820.19999998062849
2.000000180304050.199999980628492.200000183284280.19999998062849
2.400000186264520.199999980628492.600000189244750.19999998062849
2.800000192224980.199999980628493.000000195205210.19999998062849
3.200000198185440.199999980628493.400000201165680.19999998062849
3.600000204145910.199999980628493.800000207126140.19999998062849
4.000000210106370.199999980628494.200000213086610.19999998062849
4.400000216066840.199999980628494.600000219047070.19999998062849
 4.80000022202730.199999980628495.000000225007530.19999998062849
Storage Area 2D PointsPerimeterTime=11Aug2025 18:16:26
Storage Area Mannings=0.03
2D Cell Volume Filter Tolerance=0.003
2D Cell Minimum Area Fraction=0.01
2D Face Profile Filter Tolerance=0.003
2D Face Area Elevation Profile Filter Tolerance=0.003
2D Face Area Elevation Conveyance Ratio=0.02
2D Face Min Length Ratio=0.05
2D Face Area Laminar Depth=0.06
2D Multiple Face Mann n=0
2D Composite LC=0

BC Line Name=inlet                           
BC Line Storage Area=flume           
BC Line Start Position= 5.1 , 1.5 
BC Line Middle Position= 5.1 , 0.75 
BC Line End Position= 5.1 , 0 
BC Line Arc= 2 
             5.1             1.5             5.1              0.
BC Line Text Position= 1.79769313486232E+308 , 1.79769313486232E+308 
BC Line Name=outlet                          
BC Line Storage Area=flume           
BC Line Start Position=-10.14 , 1.5 
BC Line Middle Position=-10.14 , 0.75 
BC Line End Position=-10.14 , 0 
BC Line Arc= 2 
          -10.14             1.5          -10.14              0.
BC Line Text Position= 1.79769313486232E+308 , 1.79769313486232E+308 
LCMann Time=Aug/11/2025 16:31:55
LCMann Region Time=Aug/11/2025 16:31:55
LCMann Table=0
Chan Stop Cuts=-1 



Use User Specified Reach Order=0
GIS Ratio Cuts To Invert=-1
GIS Limit At Bridges=0
Composite Channel Slope=5
