Geom Title=mesh
Program Version=6.60
Viewing Rectangle=-12 , 8 , 1.575 ,-7.50000000000001E-02 

Storage Area=flume           ,,
Storage Area Surface Line= 5 
           -10.1              0.                
           -10.1             1.5                
            5.08             1.5                
            5.08              0.                
           -10.1              0.                
Storage Area Type= 1 
Storage Area Area=
Storage Area Min Elev=
Storage Area Is2D=-1
Storage Area Point Generation Data=0,0,0.1,0.1
Storage Area 2D Points= 2514 
-10.0499999992541.44999999925494-9.94999999776481.44999999925494
-9.84999999627471.44999999925494-9.74999999478451.44999999925494
-9.64999999329441.44999999925494-9.54999999180431.44999999925494
-9.44999999031421.44999999925494-9.34999998882411.44999999925494
-9.24999998733401.44999999925494-9.14999998584391.44999999925494
-9.04999998435371.44999999925494-8.94999998286361.44999999925494
-8.84999998137351.44999999925494-8.74999997988341.44999999925494
-8.64999997839331.44999999925494-8.54999997690321.44999999925494
-8.44999997541301.44999999925494-8.34999997392291.44999999925494
-8.24999997243281.44999999925494-8.14999997094271.44999999925494
-8.04999996945261.44999999925494-7.94999996796251.44999999925494
-7.84999996647231.44999999925494-7.74999996498221.44999999925494
-7.64999996349211.44999999925494-7.54999996200201.44999999925494
-7.44999996051191.44999999925494-7.34999995902181.44999999925494
-7.24999995753161.44999999925494-7.14999995604151.44999999925494
-7.04999995455141.44999999925494-6.94999995306131.44999999925494
-6.84999995157121.44999999925494-6.74999995008111.44999999925494
-6.64999994859091.44999999925494-6.54999994710081.44999999925494
-6.44999994561071.44999999925494-6.34999994412061.44999999925494
-6.24999994263051.44999999925494-6.14999994114041.44999999925494
-6.04999993965031.44999999925494-5.94999993816011.44999999925494
-5.84999993667001.44999999925494-5.74999993517991.44999999925494
-5.64999993368981.44999999925494-5.54999993219971.44999999925494
-5.44999993070961.44999999925494-5.34999992921941.44999999925494
-5.24999992772931.44999999925494-5.14999992623921.44999999925494
-5.04999992474911.44999999925494-4.94999992325901.44999999925494
-4.84999992176891.44999999925494-4.74999992027871.44999999925494
-4.64999991878861.44999999925494-4.54999991729851.44999999925494
-4.44999991580841.44999999925494-4.34999991431831.44999999925494
-4.24999991282821.44999999925494-4.14999991133801.44999999925494
-4.04999990984791.44999999925494-3.94999990835781.44999999925494
-3.84999990686771.44999999925494-3.74999990537761.44999999925494
-3.64999990388751.44999999925494-3.54999990239731.44999999925494
-3.44999990090721.44999999925494-3.34999989941711.44999999925494
-3.24999989792701.44999999925494-3.14999989643691.44999999925494
-3.04999989494681.44999999925494-2.94999989345671.44999999925494
-2.84999989196651.44999999925494-2.74999989047641.44999999925494
-2.64999988898631.44999999925494-2.54999988749621.44999999925494
-2.44999988600611.44999999925494 -2.3499998845161.44999999925494
-2.24999988302581.44999999925494-2.14999988153571.44999999925494
-2.04999988004561.44999999925494-1.94999987855551.44999999925494
-1.84999987706541.44999999925494-1.74999987557531.44999999925494
-1.64999987408511.44999999925494-1.54999987259501.44999999925494
-1.44999987110491.44999999925494-1.34999986961481.44999999925494
-1.24999986812471.44999999925494-1.14999986663461.44999999925494
-1.04999986514441.44999999925494-0.94999986365431.44999999925494
-0.84999986216421.44999999925494-0.74999986067411.44999999925494
-0.64999985918401.44999999925494-0.54999985769391.44999999925494
-0.44999985620371.44999999925494-0.34999985471361.44999999925494
-0.24999985322351.44999999925494-0.14999985173341.44999999925494
-0.04999985024331.449999999254940.050000151246791.44999999925494
 0.15000015273691.449999999254940.250000154227021.44999999925494
0.350000155717141.449999999254940.450000157207251.44999999925494
0.550000158697371.449999999254940.650000160187481.44999999925494
 0.75000016167761.449999999254940.850000163167721.44999999925494
0.950000164657831.449999999254941.050000166147951.44999999925494
1.150000167638061.449999999254941.250000169128181.44999999925494
 1.35000017061831.449999999254941.450000172108411.44999999925494
1.550000173598531.449999999254941.650000175088641.44999999925494
1.750000176578761.449999999254941.850000178068881.44999999925494
1.950000179558991.449999999254942.050000181049111.44999999925494
2.150000182539231.449999999254942.250000184029341.44999999925494
2.350000185519461.449999999254942.450000187009571.44999999925494
2.550000188499691.449999999254942.650000189989811.44999999925494
2.750000191479921.449999999254942.850000192970041.44999999925494
2.950000194460151.449999999254943.050000195950271.44999999925494
3.150000197440391.44999999925494 3.25000019893051.44999999925494
3.350000200420621.449999999254943.450000201910731.44999999925494
3.550000203400851.449999999254943.650000204890971.44999999925494
3.750000206381081.44999999925494 3.85000020787121.44999999925494
3.950000209361321.449999999254944.050000210851431.44999999925494
4.150000212341551.449999999254944.250000213831661.44999999925494
4.350000215321781.44999999925494 4.45000021681191.44999999925494
4.550000218302011.449999999254944.650000219792131.44999999925494
4.750000221282241.449999999254944.850000222772361.44999999925494
4.950000224262481.449999999254945.050000225752591.44999999925494
-10.0499999992541.34999999776483-9.94999999776481.34999999776483
-9.84999999627471.34999999776483-9.74999999478451.34999999776483
-9.64999999329441.34999999776483-9.54999999180431.34999999776483
-9.44999999031421.34999999776483-9.34999998882411.34999999776483
-9.24999998733401.34999999776483-9.14999998584391.34999999776483
-9.04999998435371.34999999776483-8.94999998286361.34999999776483
-8.84999998137351.34999999776483-8.74999997988341.34999999776483
-8.64999997839331.34999999776483-8.54999997690321.34999999776483
-8.44999997541301.34999999776483-8.34999997392291.34999999776483
-8.24999997243281.34999999776483-8.14999997094271.34999999776483
-8.04999996945261.34999999776483-7.94999996796251.34999999776483
-7.84999996647231.34999999776483-7.74999996498221.34999999776483
-7.64999996349211.34999999776483-7.54999996200201.34999999776483
-7.44999996051191.34999999776483-7.34999995902181.34999999776483
-7.24999995753161.34999999776483-7.14999995604151.34999999776483
-7.04999995455141.34999999776483-6.94999995306131.34999999776483
-6.84999995157121.34999999776483-6.74999995008111.34999999776483
-6.64999994859091.34999999776483-6.54999994710081.34999999776483
-6.44999994561071.34999999776483-6.34999994412061.34999999776483
-6.24999994263051.34999999776483-6.14999994114041.34999999776483
-6.04999993965031.34999999776483-5.94999993816011.34999999776483
-5.84999993667001.34999999776483-5.74999993517991.34999999776483
-5.64999993368981.34999999776483-5.54999993219971.34999999776483
-5.44999993070961.34999999776483-5.34999992921941.34999999776483
-5.24999992772931.34999999776483-5.14999992623921.34999999776483
-5.04999992474911.34999999776483-4.94999992325901.34999999776483
-4.84999992176891.34999999776483-4.74999992027871.34999999776483
-4.64999991878861.34999999776483-4.54999991729851.34999999776483
-4.44999991580841.34999999776483-4.34999991431831.34999999776483
-4.24999991282821.34999999776483-4.14999991133801.34999999776483
-4.04999990984791.34999999776483-3.94999990835781.34999999776483
-3.84999990686771.34999999776483-3.74999990537761.34999999776483
-3.64999990388751.34999999776483-3.54999990239731.34999999776483
-3.44999990090721.34999999776483-3.34999989941711.34999999776483
-3.24999989792701.34999999776483-3.14999989643691.34999999776483
-3.04999989494681.34999999776483-2.94999989345671.34999999776483
-2.84999989196651.34999999776483-2.74999989047641.34999999776483
-2.64999988898631.34999999776483-2.54999988749621.34999999776483
-2.44999988600611.34999999776483 -2.3499998845161.34999999776483
-2.24999988302581.34999999776483-2.14999988153571.34999999776483
-2.04999988004561.34999999776483-1.94999987855551.34999999776483
-1.84999987706541.34999999776483-1.74999987557531.34999999776483
-1.64999987408511.34999999776483-1.54999987259501.34999999776483
-1.44999987110491.34999999776483-1.34999986961481.34999999776483
-1.24999986812471.34999999776483-1.14999986663461.34999999776483
-1.04999986514441.34999999776483-0.94999986365431.34999999776483
-0.84999986216421.34999999776483-0.74999986067411.34999999776483
-0.64999985918401.34999999776483-0.54999985769391.34999999776483
-0.44999985620371.34999999776483-0.34999985471361.34999999776483
-0.24999985322351.34999999776483-0.14999985173341.34999999776483
-0.04999985024331.349999997764830.050000151246791.34999999776483
 0.15000015273691.349999997764830.250000154227021.34999999776483
0.350000155717141.349999997764830.450000157207251.34999999776483
0.550000158697371.349999997764830.650000160187481.34999999776483
 0.75000016167761.349999997764830.850000163167721.34999999776483
0.950000164657831.349999997764831.050000166147951.34999999776483
1.150000167638061.349999997764831.250000169128181.34999999776483
 1.35000017061831.349999997764831.450000172108411.34999999776483
1.550000173598531.349999997764831.650000175088641.34999999776483
1.750000176578761.349999997764831.850000178068881.34999999776483
1.950000179558991.349999997764832.050000181049111.34999999776483
2.150000182539231.349999997764832.250000184029341.34999999776483
2.350000185519461.349999997764832.450000187009571.34999999776483
2.550000188499691.349999997764832.650000189989811.34999999776483
2.750000191479921.349999997764832.850000192970041.34999999776483
2.950000194460151.349999997764833.050000195950271.34999999776483
3.150000197440391.34999999776483 3.25000019893051.34999999776483
3.350000200420621.349999997764833.450000201910731.34999999776483
3.550000203400851.349999997764833.650000204890971.34999999776483
3.750000206381081.34999999776483 3.85000020787121.34999999776483
3.950000209361321.349999997764834.050000210851431.34999999776483
4.150000212341551.349999997764834.250000213831661.34999999776483
4.350000215321781.34999999776483 4.45000021681191.34999999776483
4.550000218302011.349999997764834.650000219792131.34999999776483
4.750000221282241.349999997764834.850000222772361.34999999776483
4.950000224262481.349999997764835.050000225752591.34999999776483
-10.0499999992541.24999999627471-9.94999999776481.24999999627471
-9.84999999627471.24999999627471-9.74999999478451.24999999627471
-9.64999999329441.24999999627471-9.54999999180431.24999999627471
-9.44999999031421.24999999627471-9.34999998882411.24999999627471
-9.24999998733401.24999999627471-9.14999998584391.24999999627471
-9.04999998435371.24999999627471-8.94999998286361.24999999627471
-8.84999998137351.24999999627471-8.74999997988341.24999999627471
-8.64999997839331.24999999627471-8.54999997690321.24999999627471
-8.44999997541301.24999999627471-8.34999997392291.24999999627471
-8.24999997243281.24999999627471-8.14999997094271.24999999627471
-8.04999996945261.24999999627471-7.94999996796251.24999999627471
-7.84999996647231.24999999627471-7.74999996498221.24999999627471
-7.64999996349211.24999999627471-7.54999996200201.24999999627471
-7.44999996051191.24999999627471-7.34999995902181.24999999627471
-7.24999995753161.24999999627471-7.14999995604151.24999999627471
-7.04999995455141.24999999627471-6.94999995306131.24999999627471
-6.84999995157121.24999999627471-6.74999995008111.24999999627471
-6.64999994859091.24999999627471-6.54999994710081.24999999627471
-6.44999994561071.24999999627471-6.34999994412061.24999999627471
-6.24999994263051.24999999627471-6.14999994114041.24999999627471
-6.04999993965031.24999999627471-5.94999993816011.24999999627471
-5.84999993667001.24999999627471-5.74999993517991.24999999627471
-5.64999993368981.24999999627471-5.54999993219971.24999999627471
-5.44999993070961.24999999627471-5.34999992921941.24999999627471
-5.24999992772931.24999999627471-5.14999992623921.24999999627471
-5.04999992474911.24999999627471-4.94999992325901.24999999627471
-4.84999992176891.24999999627471-4.74999992027871.24999999627471
-4.64999991878861.24999999627471-4.54999991729851.24999999627471
-4.44999991580841.24999999627471-4.34999991431831.24999999627471
-4.24999991282821.24999999627471-4.14999991133801.24999999627471
-4.04999990984791.24999999627471-3.94999990835781.24999999627471
-3.84999990686771.24999999627471-3.74999990537761.24999999627471
-3.64999990388751.24999999627471-3.54999990239731.24999999627471
-3.44999990090721.24999999627471-3.34999989941711.24999999627471
-3.24999989792701.24999999627471-3.14999989643691.24999999627471
-3.04999989494681.24999999627471-2.94999989345671.24999999627471
-2.84999989196651.24999999627471-2.74999989047641.24999999627471
-2.64999988898631.24999999627471-2.54999988749621.24999999627471
-2.44999988600611.24999999627471 -2.3499998845161.24999999627471
-2.24999988302581.24999999627471-2.14999988153571.24999999627471
-2.04999988004561.24999999627471-1.94999987855551.24999999627471
-1.84999987706541.24999999627471-1.74999987557531.24999999627471
-1.64999987408511.24999999627471-1.54999987259501.24999999627471
-1.44999987110491.24999999627471-1.34999986961481.24999999627471
-1.24999986812471.24999999627471-1.14999986663461.24999999627471
-1.04999986514441.24999999627471-0.94999986365431.24999999627471
-0.84999986216421.24999999627471-0.74999986067411.24999999627471
-0.64999985918401.24999999627471-0.54999985769391.24999999627471
-0.44999985620371.24999999627471-0.34999985471361.24999999627471
-0.24999985322351.24999999627471-0.14999985173341.24999999627471
-0.04999985024331.249999996274710.050000151246791.24999999627471
 0.15000015273691.249999996274710.250000154227021.24999999627471
0.350000155717141.249999996274710.450000157207251.24999999627471
0.550000158697371.249999996274710.650000160187481.24999999627471
 0.75000016167761.249999996274710.850000163167721.24999999627471
0.950000164657831.249999996274711.050000166147951.24999999627471
1.150000167638061.249999996274711.250000169128181.24999999627471
 1.35000017061831.249999996274711.450000172108411.24999999627471
1.550000173598531.249999996274711.650000175088641.24999999627471
1.750000176578761.249999996274711.850000178068881.24999999627471
1.950000179558991.249999996274712.050000181049111.24999999627471
2.150000182539231.249999996274712.250000184029341.24999999627471
2.350000185519461.249999996274712.450000187009571.24999999627471
2.550000188499691.249999996274712.650000189989811.24999999627471
2.750000191479921.249999996274712.850000192970041.24999999627471
2.950000194460151.249999996274713.050000195950271.24999999627471
3.150000197440391.24999999627471 3.25000019893051.24999999627471
3.350000200420621.249999996274713.450000201910731.24999999627471
3.550000203400851.249999996274713.650000204890971.24999999627471
3.750000206381081.24999999627471 3.85000020787121.24999999627471
3.950000209361321.249999996274714.050000210851431.24999999627471
4.150000212341551.249999996274714.250000213831661.24999999627471
4.350000215321781.24999999627471 4.45000021681191.24999999627471
4.550000218302011.249999996274714.650000219792131.24999999627471
4.750000221282241.249999996274714.850000222772361.24999999627471
4.950000224262481.249999996274715.050000225752591.24999999627471
-10.0499999992541.14999999478459-9.94999999776481.14999999478459
-9.84999999627471.14999999478459-9.74999999478451.14999999478459
-9.64999999329441.14999999478459-9.54999999180431.14999999478459
-9.44999999031421.14999999478459-9.34999998882411.14999999478459
-9.24999998733401.14999999478459-9.14999998584391.14999999478459
-9.04999998435371.14999999478459-8.94999998286361.14999999478459
-8.84999998137351.14999999478459-8.74999997988341.14999999478459
-8.64999997839331.14999999478459-8.54999997690321.14999999478459
-8.44999997541301.14999999478459-8.34999997392291.14999999478459
-8.24999997243281.14999999478459-8.14999997094271.14999999478459
-8.04999996945261.14999999478459-7.94999996796251.14999999478459
-7.84999996647231.14999999478459-7.74999996498221.14999999478459
-7.64999996349211.14999999478459-7.54999996200201.14999999478459
-7.44999996051191.14999999478459-7.34999995902181.14999999478459
-7.24999995753161.14999999478459-7.14999995604151.14999999478459
-7.04999995455141.14999999478459-6.94999995306131.14999999478459
-6.84999995157121.14999999478459-6.74999995008111.14999999478459
-6.64999994859091.14999999478459-6.54999994710081.14999999478459
-6.44999994561071.14999999478459-6.34999994412061.14999999478459
-6.24999994263051.14999999478459-6.14999994114041.14999999478459
-6.04999993965031.14999999478459-5.94999993816011.14999999478459
-5.84999993667001.14999999478459-5.74999993517991.14999999478459
-5.64999993368981.14999999478459-5.54999993219971.14999999478459
-5.44999993070961.14999999478459-5.34999992921941.14999999478459
-5.24999992772931.14999999478459-5.14999992623921.14999999478459
-5.04999992474911.14999999478459-4.94999992325901.14999999478459
-4.84999992176891.14999999478459-4.74999992027871.14999999478459
-4.64999991878861.14999999478459-4.54999991729851.14999999478459
-4.44999991580841.14999999478459-4.34999991431831.14999999478459
-4.24999991282821.14999999478459-4.14999991133801.14999999478459
-4.04999990984791.14999999478459-3.94999990835781.14999999478459
-3.84999990686771.14999999478459-3.74999990537761.14999999478459
-3.64999990388751.14999999478459-3.54999990239731.14999999478459
-3.44999990090721.14999999478459-3.34999989941711.14999999478459
-3.24999989792701.14999999478459-3.14999989643691.14999999478459
-3.04999989494681.14999999478459-2.94999989345671.14999999478459
-2.84999989196651.14999999478459-2.74999989047641.14999999478459
-2.64999988898631.14999999478459-2.54999988749621.14999999478459
-2.44999988600611.14999999478459 -2.3499998845161.14999999478459
-2.24999988302581.14999999478459-2.14999988153571.14999999478459
-2.04999988004561.14999999478459-1.94999987855551.14999999478459
-1.84999987706541.14999999478459-1.74999987557531.14999999478459
-1.64999987408511.14999999478459-1.54999987259501.14999999478459
-1.44999987110491.14999999478459-1.34999986961481.14999999478459
-1.24999986812471.14999999478459-1.14999986663461.14999999478459
-1.04999986514441.14999999478459-0.94999986365431.14999999478459
-0.84999986216421.14999999478459-0.74999986067411.14999999478459
-0.64999985918401.14999999478459-0.54999985769391.14999999478459
-0.44999985620371.14999999478459-0.34999985471361.14999999478459
-0.24999985322351.14999999478459-0.14999985173341.14999999478459
-0.04999985024331.149999994784590.050000151246791.14999999478459
 0.15000015273691.149999994784590.250000154227021.14999999478459
0.350000155717141.149999994784590.450000157207251.14999999478459
0.550000158697371.149999994784590.650000160187481.14999999478459
 0.75000016167761.149999994784590.850000163167721.14999999478459
0.950000164657831.149999994784591.050000166147951.14999999478459
1.150000167638061.149999994784591.250000169128181.14999999478459
 1.35000017061831.149999994784591.450000172108411.14999999478459
1.550000173598531.149999994784591.650000175088641.14999999478459
1.750000176578761.149999994784591.850000178068881.14999999478459
1.950000179558991.149999994784592.050000181049111.14999999478459
2.150000182539231.149999994784592.250000184029341.14999999478459
2.350000185519461.149999994784592.450000187009571.14999999478459
2.550000188499691.149999994784592.650000189989811.14999999478459
2.750000191479921.149999994784592.850000192970041.14999999478459
2.950000194460151.149999994784593.050000195950271.14999999478459
3.150000197440391.14999999478459 3.25000019893051.14999999478459
3.350000200420621.149999994784593.450000201910731.14999999478459
3.550000203400851.149999994784593.650000204890971.14999999478459
3.750000206381081.14999999478459 3.85000020787121.14999999478459
3.950000209361321.149999994784594.050000210851431.14999999478459
4.150000212341551.149999994784594.250000213831661.14999999478459
4.350000215321781.14999999478459 4.45000021681191.14999999478459
4.550000218302011.149999994784594.650000219792131.14999999478459
4.750000221282241.149999994784594.850000222772361.14999999478459
4.950000224262481.149999994784595.050000225752591.14999999478459
-10.0499999992541.04999999329448-9.94999999776481.04999999329448
-9.84999999627471.04999999329448-9.74999999478451.04999999329448
-9.64999999329441.04999999329448-9.54999999180431.04999999329448
-9.44999999031421.04999999329448-9.34999998882411.04999999329448
-9.24999998733401.04999999329448-9.14999998584391.04999999329448
-9.04999998435371.04999999329448-8.94999998286361.04999999329448
-8.84999998137351.04999999329448-8.74999997988341.04999999329448
-8.64999997839331.04999999329448-8.54999997690321.04999999329448
-8.44999997541301.04999999329448-8.34999997392291.04999999329448
-8.24999997243281.04999999329448-8.14999997094271.04999999329448
-8.04999996945261.04999999329448-7.94999996796251.04999999329448
-7.84999996647231.04999999329448-7.74999996498221.04999999329448
-7.64999996349211.04999999329448-7.54999996200201.04999999329448
-7.44999996051191.04999999329448-7.34999995902181.04999999329448
-7.24999995753161.04999999329448-7.14999995604151.04999999329448
-7.04999995455141.04999999329448-6.94999995306131.04999999329448
-6.84999995157121.04999999329448-6.74999995008111.04999999329448
-6.64999994859091.04999999329448-6.54999994710081.04999999329448
-6.44999994561071.04999999329448-6.34999994412061.04999999329448
-6.24999994263051.04999999329448-6.14999994114041.04999999329448
-6.04999993965031.04999999329448-5.94999993816011.04999999329448
-5.84999993667001.04999999329448-5.74999993517991.04999999329448
-5.64999993368981.04999999329448-5.54999993219971.04999999329448
-5.44999993070961.04999999329448-5.34999992921941.04999999329448
-5.24999992772931.04999999329448-5.14999992623921.04999999329448
-5.04999992474911.04999999329448-4.94999992325901.04999999329448
-4.84999992176891.04999999329448-4.74999992027871.04999999329448
-4.64999991878861.04999999329448-4.54999991729851.04999999329448
-4.44999991580841.04999999329448-4.34999991431831.04999999329448
-4.24999991282821.04999999329448-4.14999991133801.04999999329448
-4.04999990984791.04999999329448-3.94999990835781.04999999329448
-3.84999990686771.04999999329448-3.74999990537761.04999999329448
-3.64999990388751.04999999329448-3.54999990239731.04999999329448
-3.44999990090721.04999999329448-3.34999989941711.04999999329448
-3.24999989792701.04999999329448-3.14999989643691.04999999329448
-3.04999989494681.04999999329448-2.94999989345671.04999999329448
-2.84999989196651.04999999329448-2.74999989047641.04999999329448
-2.64999988898631.04999999329448-2.54999988749621.04999999329448
-2.44999988600611.04999999329448 -2.3499998845161.04999999329448
-2.24999988302581.04999999329448-2.14999988153571.04999999329448
-2.04999988004561.04999999329448-1.94999987855551.04999999329448
-1.84999987706541.04999999329448-1.74999987557531.04999999329448
-1.64999987408511.04999999329448-1.54999987259501.04999999329448
-1.44999987110491.04999999329448-1.34999986961481.04999999329448
-1.24999986812471.04999999329448-1.14999986663461.04999999329448
-1.04999986514441.04999999329448-0.94999986365431.04999999329448
-0.84999986216421.04999999329448-0.74999986067411.04999999329448
-0.64999985918401.04999999329448-0.54999985769391.04999999329448
-0.44999985620371.04999999329448-0.34999985471361.04999999329448
-0.24999985322351.04999999329448-0.14999985173341.04999999329448
-0.04999985024331.049999993294480.050000151246791.04999999329448
 0.15000015273691.049999993294480.250000154227021.04999999329448
0.350000155717141.049999993294480.450000157207251.04999999329448
0.550000158697371.049999993294480.650000160187481.04999999329448
 0.75000016167761.049999993294480.850000163167721.04999999329448
0.950000164657831.049999993294481.050000166147951.04999999329448
1.150000167638061.049999993294481.250000169128181.04999999329448
 1.35000017061831.049999993294481.450000172108411.04999999329448
1.550000173598531.049999993294481.650000175088641.04999999329448
1.750000176578761.049999993294481.850000178068881.04999999329448
1.950000179558991.049999993294482.050000181049111.04999999329448
2.150000182539231.049999993294482.250000184029341.04999999329448
2.350000185519461.049999993294482.450000187009571.04999999329448
2.550000188499691.049999993294482.650000189989811.04999999329448
2.750000191479921.049999993294482.850000192970041.04999999329448
2.950000194460151.049999993294483.050000195950271.04999999329448
3.150000197440391.04999999329448 3.25000019893051.04999999329448
3.350000200420621.049999993294483.450000201910731.04999999329448
3.550000203400851.049999993294483.650000204890971.04999999329448
3.750000206381081.04999999329448 3.85000020787121.04999999329448
3.950000209361321.049999993294484.050000210851431.04999999329448
4.150000212341551.049999993294484.250000213831661.04999999329448
4.350000215321781.04999999329448 4.45000021681191.04999999329448
4.550000218302011.049999993294484.650000219792131.04999999329448
4.750000221282241.049999993294484.850000222772361.04999999329448
4.950000224262481.049999993294485.050000225752591.04999999329448
-10.0499999992540.94999999180436-9.94999999776480.94999999180436
-9.84999999627470.94999999180436-9.74999999478450.94999999180436
-9.64999999329440.94999999180436-9.54999999180430.94999999180436
-9.44999999031420.94999999180436-9.34999998882410.94999999180436
-9.24999998733400.94999999180436-9.14999998584390.94999999180436
-9.04999998435370.94999999180436-8.94999998286360.94999999180436
-8.84999998137350.94999999180436-8.74999997988340.94999999180436
-8.64999997839330.94999999180436-8.54999997690320.94999999180436
-8.44999997541300.94999999180436-8.34999997392290.94999999180436
-8.24999997243280.94999999180436-8.14999997094270.94999999180436
-8.04999996945260.94999999180436-7.94999996796250.94999999180436
-7.84999996647230.94999999180436-7.74999996498220.94999999180436
-7.64999996349210.94999999180436-7.54999996200200.94999999180436
-7.44999996051190.94999999180436-7.34999995902180.94999999180436
-7.24999995753160.94999999180436-7.14999995604150.94999999180436
-7.04999995455140.94999999180436-6.94999995306130.94999999180436
-6.84999995157120.94999999180436-6.74999995008110.94999999180436
-6.64999994859090.94999999180436-6.54999994710080.94999999180436
-6.44999994561070.94999999180436-6.34999994412060.94999999180436
-6.24999994263050.94999999180436-6.14999994114040.94999999180436
-6.04999993965030.94999999180436-5.94999993816010.94999999180436
-5.84999993667000.94999999180436-5.74999993517990.94999999180436
-5.64999993368980.94999999180436-5.54999993219970.94999999180436
-5.44999993070960.94999999180436-5.34999992921940.94999999180436
-5.24999992772930.94999999180436-5.14999992623920.94999999180436
-5.04999992474910.94999999180436-4.94999992325900.94999999180436
-4.84999992176890.94999999180436-4.74999992027870.94999999180436
-4.64999991878860.94999999180436-4.54999991729850.94999999180436
-4.44999991580840.94999999180436-4.34999991431830.94999999180436
-4.24999991282820.94999999180436-4.14999991133800.94999999180436
-4.04999990984790.94999999180436-3.94999990835780.94999999180436
-3.84999990686770.94999999180436-3.74999990537760.94999999180436
-3.64999990388750.94999999180436-3.54999990239730.94999999180436
-3.44999990090720.94999999180436-3.34999989941710.94999999180436
-3.24999989792700.94999999180436-3.14999989643690.94999999180436
-3.04999989494680.94999999180436-2.94999989345670.94999999180436
-2.84999989196650.94999999180436-2.74999989047640.94999999180436
-2.64999988898630.94999999180436-2.54999988749620.94999999180436
-2.44999988600610.94999999180436 -2.3499998845160.94999999180436
-2.24999988302580.94999999180436-2.14999988153570.94999999180436
-2.04999988004560.94999999180436-1.94999987855550.94999999180436
-1.84999987706540.94999999180436-1.74999987557530.94999999180436
-1.64999987408510.94999999180436-1.54999987259500.94999999180436
-1.44999987110490.94999999180436-1.34999986961480.94999999180436
-1.24999986812470.94999999180436-1.14999986663460.94999999180436
-1.04999986514440.94999999180436-0.94999986365430.94999999180436
-0.84999986216420.94999999180436-0.74999986067410.94999999180436
-0.64999985918400.94999999180436-0.54999985769390.94999999180436
-0.44999985620370.94999999180436-0.34999985471360.94999999180436
-0.24999985322350.94999999180436-0.14999985173340.94999999180436
-0.04999985024330.949999991804360.050000151246790.94999999180436
 0.15000015273690.949999991804360.250000154227020.94999999180436
0.350000155717140.949999991804360.450000157207250.94999999180436
0.550000158697370.949999991804360.650000160187480.94999999180436
 0.75000016167760.949999991804360.850000163167720.94999999180436
0.950000164657830.949999991804361.050000166147950.94999999180436
1.150000167638060.949999991804361.250000169128180.94999999180436
 1.35000017061830.949999991804361.450000172108410.94999999180436
1.550000173598530.949999991804361.650000175088640.94999999180436
1.750000176578760.949999991804361.850000178068880.94999999180436
1.950000179558990.949999991804362.050000181049110.94999999180436
2.150000182539230.949999991804362.250000184029340.94999999180436
2.350000185519460.949999991804362.450000187009570.94999999180436
2.550000188499690.949999991804362.650000189989810.94999999180436
2.750000191479920.949999991804362.850000192970040.94999999180436
2.950000194460150.949999991804363.050000195950270.94999999180436
3.150000197440390.94999999180436 3.25000019893050.94999999180436
3.350000200420620.949999991804363.450000201910730.94999999180436
3.550000203400850.949999991804363.650000204890970.94999999180436
3.750000206381080.94999999180436 3.85000020787120.94999999180436
3.950000209361320.949999991804364.050000210851430.94999999180436
4.150000212341550.949999991804364.250000213831660.94999999180436